12
analine anion ala.ff
N            0.000000        0.000000        0.000000
H            1.025260        0.000000        0.000000
H           -0.211789       -1.008880        0.000000
C           -0.421345        0.437541        1.361831
H            0.105673        1.378869        1.605347
C           -1.936563        0.705899        1.355744
H           -2.263481        1.039988        2.355034
H           -2.203031        1.470633        0.601507
H           -2.475345       -0.227341        1.106896
C           -0.097932       -0.608673        2.503333
O           -0.013052       -1.820522        2.127995
O            0.004859       -0.125806        3.669770
